<?xml version="1.0" encoding="UTF-8" standalone="no"?>
<routes xmlns:xsi="http://www.w3.org/2001/XMLSchema-instance" xsi:noNamespaceSchemaLocation="http://sumo.dlr.de/xsd/routes_file.xsd">
<vType id="type1" length="1.0">
<carFollowing-Krauss tau="2.5"/>
</vType>
<vehicle arrivalLane="current" depart="0" departLane="random" departPos="random" id="veh_0_0.0" type="type1">
<route edges="5367035 328980688 328980687 25698361 328980684 278328108 11624006 80266375 5077407 5552874 30746500 30833219 220567386 11624079#0 11624079#1 226991211 24024442 86144284 155563747 208424304#1 295644509 76128217 295644508 295516788 203091859 157140427 65417594 9614234 22909113 111465042 301084468 321188527 81852046 301084576 338209142 301084567 219188462 226991213 166914724 338209141 20895437 338209140 301084497 301084487 132545199 301084454 208913387 208913390 "/>
</vehicle>
<vehicle arrivalLane="current" depart="0" departLane="random" departPos="random" id="veh_1_0.0" type="type1">
<route edges="37372948 253093567 328984619 302370855 155444200 49210512 302370858 219698231 5367061 4097371 219698230#1 4008379 5367057 4008378 219698232 10695212 159182247 302370856 325863620 278327345 286321028 328980686 253093566 25698361 328980684 278328108 11624006 80266375 5077407 5552874 4218820 62081149#0 260192889 41676631 245123471 5069544 245123473 5069540#0 5069540#1 226991211 24024442 86144284 155563747 208424304#1 295644509 76128217 295644508 295516788 203091859 157140427 65417594 9614234 22909113 111465042 301084468 321188527 81852046 301084576 338209142 301084567 219188462 226991213 166914724 338209141 20895437 338209140 301084497 301084487 132545199 301084454 208913387 208913388 219188458 315649555 132624438 208913385 132624485 "/>
</vehicle>
<vehicle arrivalLane="current" depart="0" departLane="random" departPos="random" id="veh_2_0.0" type="type1">
<route edges="208883386#0 208883386#1 338854138 -338854138 -225926829 157104082 157434654#0 157434654#1 157434654#2 150109682 157434654#4 157435215 157104087 4229599#0 203159184 157429592#0 5229976 157393120#1 157393120#2 157393120#3 47313732#0 47313732#1 47313732#2 47313732#3 47313732#4 32021843#1 160312590 322456246 25606745 322456245 322456250 47426158 150031245 47426157 135593540#1 115106779 -28523795 -32064261 -32064260#1 -32064260#0 219098057 206080341 -37347656 4390494 27404213 118041104#0 118041104#1 115106778#1 115106778#2 26784170#0 26784170#1 26784170#2 154502587 154507084#1 132405343#0 132405343#1 132405373 132405369 132405372 329035704 132408448 329035703 329035705 96096418 318531317 317362560 158695458 132540383 132540321 132539912 283076461 187067365 133860033 283076458 132614489 132614482 258491539 258491536 132624375 258491542 258503935 258503936 132624422 208913380 258503938 208913384 132624449 208913385 208913381 301094091 132624473 "/>
</vehicle>
<vehicle arrivalLane="current" depart="0" departLane="random" departPos="random" id="veh_3_0.0" type="type1">
<route edges="5367050 328980682 328980685 253093567 328984619 302370855 302370860 10695210 31661491 219698234 23450701 24560035 23455340 23450700 133419477 23450712 133419469 23450702#1 219698233 31415356 302370859 302370857 278327345 286321028 328980686 253093566 25698361 328980684 278328108 11624006 80266375 5077407 5552874 30746500 4218823#0 4218823#1 4218823#2 166046314 62078861#1 198188181 -205996114 -23543117#0 23714486#0 23714486#1 89528650 204001544 147860624#0 147860624#1 151054054#1 147726287#1 147726287#2 147726287#3 100132777 326979311 22887858 100138692 6187383 141241843 201168470 144886433 186459295#0 186459295#1 144886432#1 186461131#0 186461131#1 6186296 51898858#0 51898858#1 51898854#1 56700148#0 56700148#1 56700147#0 56700147#1 201331144 157274919#0 21624791#0 21624791#1 21624791#2 111465042 301084468 321188527 81852046 301084576 338209142 301084567 219188462 132525352 132525347 132406529 338407178 70913328 -226991212 -131382643 -338407179 176886890 188639781 352041950 42551572#0 42551572#1 33434245 33431432 33432714 33432713#1 140559827 85417941#0 85417941#1 160207521 135342517#0 69091662 85417940#1 254138019 "/>
</vehicle>
<vehicle arrivalLane="current" depart="6" departLane="random" departPos="random" id="veh_0_6.0" type="type1">
<route edges="5367035 328980688 328980687 25698361 328980684 278328108 11624006 80266375 5077407 5552874 30746500 30833219 220567386 11624079#0 11624079#1 226991211 24024442 86144284 155563747 208424304#1 295644509 76128217 295644508 295516788 203091859 157140427 65417594 9614234 22909113 111465042 301084468 321188527 81852046 301084576 338209142 301084567 219188462 226991213 166914724 338209141 20895437 338209140 301084497 301084487 132545199 301084454 208913387 208913390 "/>
</vehicle>
<vehicle arrivalLane="current" depart="6" departLane="random" departPos="random" id="veh_1_6.0" type="type1">
<route edges="37372948 253093567 328984619 302370855 155444200 49210512 302370858 219698231 5367061 4097371 219698230#1 4008379 5367057 4008378 219698232 10695212 159182247 302370856 325863620 278327345 286321028 328980686 253093566 25698361 328980684 278328108 11624006 80266375 5077407 5552874 4218820 62081149#0 260192889 41676631 245123471 5069544 245123473 5069540#0 5069540#1 226991211 24024442 86144284 155563747 208424304#1 295644509 76128217 295644508 295516788 203091859 157140427 65417594 9614234 22909113 111465042 301084468 321188527 81852046 301084576 338209142 301084567 219188462 226991213 166914724 338209141 20895437 338209140 301084497 301084487 132545199 301084454 208913387 208913388 219188458 315649555 132624438 208913385 132624485 "/>
</vehicle>
<vehicle arrivalLane="current" depart="6" departLane="random" departPos="random" id="veh_2_6.0" type="type1">
<route edges="208883386#0 208883386#1 338854138 -338854138 -225926829 157104082 157434654#0 157434654#1 157434654#2 150109682 157434654#4 157435215 157104087 4229599#0 203159184 157429592#0 5229976 157393120#1 157393120#2 157393120#3 47313732#0 47313732#1 47313732#2 47313732#3 47313732#4 32021843#1 160312590 322456246 25606745 322456245 322456250 47426158 150031245 47426157 135593540#1 115106779 -28523795 -32064261 -32064260#1 -32064260#0 219098057 206080341 -37347656 4390494 27404213 118041104#0 118041104#1 115106778#1 115106778#2 26784170#0 26784170#1 26784170#2 154502587 154507084#1 132405343#0 132405343#1 132405373 132405369 132405372 329035704 132408448 329035703 329035705 96096418 318531317 317362560 158695458 132540383 132540321 132539912 283076461 187067365 133860033 283076458 132614489 132614482 258491539 258491536 132624375 258491542 258503935 258503936 132624422 208913380 258503938 208913384 132624449 208913385 208913381 301094091 132624473 "/>
</vehicle>
<vehicle arrivalLane="current" depart="6" departLane="random" departPos="random" id="veh_3_6.0" type="type1">
<route edges="5367050 328980682 328980685 253093567 328984619 302370855 302370860 10695210 31661491 219698234 23450701 24560035 23455340 23450700 133419477 23450712 133419469 23450702#1 219698233 31415356 302370859 302370857 278327345 286321028 328980686 253093566 25698361 328980684 278328108 11624006 80266375 5077407 5552874 30746500 4218823#0 4218823#1 4218823#2 166046314 62078861#1 198188181 -205996114 -23543117#0 23714486#0 23714486#1 89528650 204001544 147860624#0 147860624#1 151054054#1 147726287#1 147726287#2 147726287#3 100132777 326979311 22887858 100138692 6187383 141241843 201168470 144886433 186459295#0 186459295#1 144886432#1 186461131#0 186461131#1 6186296 51898858#0 51898858#1 51898854#1 56700148#0 56700148#1 56700147#0 56700147#1 201331144 157274919#0 21624791#0 21624791#1 21624791#2 111465042 301084468 321188527 81852046 301084576 338209142 301084567 219188462 132525352 132525347 132406529 338407178 70913328 -226991212 -131382643 -338407179 176886890 188639781 352041950 42551572#0 42551572#1 33434245 33431432 33432714 33432713#1 140559827 85417941#0 85417941#1 160207521 135342517#0 69091662 85417940#1 254138019 "/>
</vehicle>
<vehicle arrivalLane="current" depart="12" departLane="random" departPos="random" id="veh_1_12.0" type="type1">
<route edges="37372948 253093567 328984619 302370855 155444200 49210512 302370858 219698231 5367061 4097371 219698230#1 4008379 5367057 4008378 219698232 10695212 159182247 302370856 325863620 278327345 286321028 328980686 253093566 25698361 328980684 278328108 11624006 80266375 5077407 5552874 4218820 62081149#0 260192889 41676631 245123471 5069544 245123473 5069540#0 5069540#1 226991211 24024442 86144284 155563747 208424304#1 295644509 76128217 295644508 295516788 203091859 157140427 65417594 9614234 22909113 111465042 301084468 321188527 81852046 301084576 338209142 301084567 219188462 226991213 166914724 338209141 20895437 338209140 301084497 301084487 132545199 301084454 208913387 208913388 219188458 315649555 132624438 208913385 132624485 "/>
</vehicle>
<vehicle arrivalLane="current" depart="12" departLane="random" departPos="random" id="veh_2_12.0" type="type1">
<route edges="208883386#0 208883386#1 338854138 -338854138 -225926829 157104082 157434654#0 157434654#1 157434654#2 150109682 157434654#4 157435215 157104087 4229599#0 203159184 157429592#0 5229976 157393120#1 157393120#2 157393120#3 47313732#0 47313732#1 47313732#2 47313732#3 47313732#4 32021843#1 160312590 322456246 25606745 322456245 322456250 47426158 150031245 47426157 135593540#1 115106779 -28523795 -32064261 -32064260#1 -32064260#0 219098057 206080341 -37347656 4390494 27404213 118041104#0 118041104#1 115106778#1 115106778#2 26784170#0 26784170#1 26784170#2 154502587 154507084#1 132405343#0 132405343#1 132405373 132405369 132405372 329035704 132408448 329035703 329035705 96096418 318531317 317362560 158695458 132540383 132540321 132539912 283076461 187067365 133860033 283076458 132614489 132614482 258491539 258491536 132624375 258491542 258503935 258503936 132624422 208913380 258503938 208913384 132624449 208913385 208913381 301094091 132624473 "/>
</vehicle>
<vehicle arrivalLane="current" depart="12" departLane="random" departPos="random" id="veh_0_12.0" type="type1">
<route edges="5367035 328980688 328980687 25698361 328980684 278328108 11624006 80266375 5077407 5552874 30746500 30833219 220567386 11624079#0 11624079#1 226991211 24024442 86144284 155563747 208424304#1 295644509 76128217 295644508 295516788 203091859 157140427 65417594 9614234 22909113 111465042 301084468 321188527 81852046 301084576 338209142 301084567 219188462 226991213 166914724 338209141 20895437 338209140 301084497 301084487 132545199 301084454 208913387 208913390 "/>
</vehicle>
<vehicle arrivalLane="current" depart="12" departLane="random" departPos="random" id="veh_3_12.0" type="type1">
<route edges="5367050 328980682 328980685 253093567 328984619 302370855 302370860 10695210 31661491 219698234 23450701 24560035 23455340 23450700 133419477 23450712 133419469 23450702#1 219698233 31415356 302370859 302370857 278327345 286321028 328980686 253093566 25698361 328980684 278328108 11624006 80266375 5077407 5552874 30746500 4218823#0 4218823#1 4218823#2 166046314 62078861#1 198188181 -205996114 -23543117#0 23714486#0 23714486#1 89528650 204001544 147860624#0 147860624#1 151054054#1 147726287#1 147726287#2 147726287#3 100132777 326979311 22887858 100138692 6187383 141241843 201168470 144886433 186459295#0 186459295#1 144886432#1 186461131#0 186461131#1 6186296 51898858#0 51898858#1 51898854#1 56700148#0 56700148#1 56700147#0 56700147#1 201331144 157274919#0 21624791#0 21624791#1 21624791#2 111465042 301084468 321188527 81852046 301084576 338209142 301084567 219188462 132525352 132525347 132406529 338407178 70913328 -226991212 -131382643 -338407179 176886890 188639781 352041950 42551572#0 42551572#1 33434245 33431432 33432714 33432713#1 140559827 85417941#0 85417941#1 160207521 135342517#0 69091662 85417940#1 254138019 "/>
</vehicle>
<vehicle arrivalLane="current" depart="18" departLane="random" departPos="random" id="veh_0_18.0" type="type1">
<route edges="5367035 328980688 328980687 25698361 328980684 278328108 11624006 80266375 5077407 5552874 30746500 30833219 220567386 11624079#0 11624079#1 226991211 24024442 86144284 155563747 208424304#1 295644509 76128217 295644508 295516788 203091859 157140427 65417594 9614234 22909113 111465042 301084468 321188527 81852046 301084576 338209142 301084567 219188462 226991213 166914724 338209141 20895437 338209140 301084497 301084487 132545199 301084454 208913387 208913390 "/>
</vehicle>
<vehicle arrivalLane="current" depart="18" departLane="random" departPos="random" id="veh_1_18.0" type="type1">
<route edges="37372948 253093567 328984619 302370855 155444200 49210512 302370858 219698231 5367061 4097371 219698230#1 4008379 5367057 4008378 219698232 10695212 159182247 302370856 325863620 278327345 286321028 328980686 253093566 25698361 328980684 278328108 11624006 80266375 5077407 5552874 4218820 62081149#0 260192889 41676631 245123471 5069544 245123473 5069540#0 5069540#1 226991211 24024442 86144284 155563747 208424304#1 295644509 76128217 295644508 295516788 203091859 157140427 65417594 9614234 22909113 111465042 301084468 321188527 81852046 301084576 338209142 301084567 219188462 226991213 166914724 338209141 20895437 338209140 301084497 301084487 132545199 301084454 208913387 208913388 219188458 315649555 132624438 208913385 132624485 "/>
</vehicle>
<vehicle arrivalLane="current" depart="18" departLane="random" departPos="random" id="veh_2_18.0" type="type1">
<route edges="208883386#0 208883386#1 338854138 -338854138 -225926829 157104082 157434654#0 157434654#1 157434654#2 150109682 157434654#4 157435215 157104087 4229599#0 203159184 157429592#0 5229976 157393120#1 157393120#2 157393120#3 47313732#0 47313732#1 47313732#2 47313732#3 47313732#4 32021843#1 160312590 322456246 25606745 322456245 322456250 47426158 150031245 47426157 135593540#1 115106779 -28523795 -32064261 -32064260#1 -32064260#0 219098057 206080341 -37347656 4390494 27404213 118041104#0 118041104#1 115106778#1 115106778#2 26784170#0 26784170#1 26784170#2 154502587 154507084#1 132405343#0 132405343#1 132405373 132405369 132405372 329035704 132408448 329035703 329035705 96096418 318531317 317362560 158695458 132540383 132540321 132539912 283076461 187067365 133860033 283076458 132614489 132614482 258491539 258491536 132624375 258491542 258503935 258503936 132624422 208913380 258503938 208913384 132624449 208913385 208913381 301094091 132624473 "/>
</vehicle>
<vehicle arrivalLane="current" depart="18" departLane="random" departPos="random" id="veh_3_18.0" type="type1">
<route edges="5367050 328980682 328980685 253093567 328984619 302370855 302370860 10695210 31661491 219698234 23450701 24560035 23455340 23450700 133419477 23450712 133419469 23450702#1 219698233 31415356 302370859 302370857 278327345 286321028 328980686 253093566 25698361 328980684 278328108 11624006 80266375 5077407 5552874 30746500 4218823#0 4218823#1 4218823#2 166046314 62078861#1 198188181 -205996114 -23543117#0 23714486#0 23714486#1 89528650 204001544 147860624#0 147860624#1 151054054#1 147726287#1 147726287#2 147726287#3 100132777 326979311 22887858 100138692 6187383 141241843 201168470 144886433 186459295#0 186459295#1 144886432#1 186461131#0 186461131#1 6186296 51898858#0 51898858#1 51898854#1 56700148#0 56700148#1 56700147#0 56700147#1 201331144 157274919#0 21624791#0 21624791#1 21624791#2 111465042 301084468 321188527 81852046 301084576 338209142 301084567 219188462 132525352 132525347 132406529 338407178 70913328 -226991212 -131382643 -338407179 176886890 188639781 352041950 42551572#0 42551572#1 33434245 33431432 33432714 33432713#1 140559827 85417941#0 85417941#1 160207521 135342517#0 69091662 85417940#1 254138019 "/>
</vehicle>
<vehicle arrivalLane="current" depart="24" departLane="random" departPos="random" id="veh_2_24.0" type="type1">
<route edges="208883386#0 208883386#1 338854138 -338854138 -225926829 157104082 157434654#0 157434654#1 157434654#2 150109682 157434654#4 157435215 157104087 4229599#0 203159184 157429592#0 5229976 157393120#1 157393120#2 157393120#3 47313732#0 47313732#1 47313732#2 47313732#3 47313732#4 32021843#1 160312590 322456246 25606745 322456245 322456250 47426158 150031245 47426157 135593540#1 115106779 -28523795 -32064261 -32064260#1 -32064260#0 219098057 206080341 -37347656 4390494 27404213 118041104#0 118041104#1 115106778#1 115106778#2 26784170#0 26784170#1 26784170#2 154502587 154507084#1 132405343#0 132405343#1 132405373 132405369 132405372 329035704 132408448 329035703 329035705 96096418 318531317 317362560 158695458 132540383 132540321 132539912 283076461 187067365 133860033 283076458 132614489 132614482 258491539 258491536 132624375 258491542 258503935 258503936 132624422 208913380 258503938 208913384 132624449 208913385 208913381 301094091 132624473 "/>
</vehicle>
<vehicle arrivalLane="current" depart="24" departLane="random" departPos="random" id="veh_1_24.0" type="type1">
<route edges="37372948 253093567 328984619 302370855 155444200 49210512 302370858 219698231 5367061 4097371 219698230#1 4008379 5367057 4008378 219698232 10695212 159182247 302370856 325863620 278327345 286321028 328980686 253093566 25698361 328980684 278328108 11624006 80266375 5077407 5552874 4218820 62081149#0 260192889 41676631 245123471 5069544 245123473 5069540#0 5069540#1 226991211 24024442 86144284 155563747 208424304#1 295644509 76128217 295644508 295516788 203091859 157140427 65417594 9614234 22909113 111465042 301084468 321188527 81852046 301084576 338209142 301084567 219188462 226991213 166914724 338209141 20895437 338209140 301084497 301084487 132545199 301084454 208913387 208913388 219188458 315649555 132624438 208913385 132624485 "/>
</vehicle>
<vehicle arrivalLane="current" depart="24" departLane="random" departPos="random" id="veh_0_24.0" type="type1">
<route edges="5367035 328980688 328980687 25698361 328980684 278328108 11624006 80266375 5077407 5552874 30746500 30833219 220567386 11624079#0 11624079#1 226991211 24024442 86144284 155563747 208424304#1 295644509 76128217 295644508 295516788 203091859 157140427 65417594 9614234 22909113 111465042 301084468 321188527 81852046 301084576 338209142 301084567 219188462 226991213 166914724 338209141 20895437 338209140 301084497 301084487 132545199 301084454 208913387 208913390 "/>
</vehicle>
<vehicle arrivalLane="current" depart="24" departLane="random" departPos="random" id="veh_3_24.0" type="type1">
<route edges="5367050 328980682 328980685 253093567 328984619 302370855 302370860 10695210 31661491 219698234 23450701 24560035 23455340 23450700 133419477 23450712 133419469 23450702#1 219698233 31415356 302370859 302370857 278327345 286321028 328980686 253093566 25698361 328980684 278328108 11624006 80266375 5077407 5552874 30746500 4218823#0 4218823#1 4218823#2 166046314 62078861#1 198188181 -205996114 -23543117#0 23714486#0 23714486#1 89528650 204001544 147860624#0 147860624#1 151054054#1 147726287#1 147726287#2 147726287#3 100132777 326979311 22887858 100138692 6187383 141241843 201168470 144886433 186459295#0 186459295#1 144886432#1 186461131#0 186461131#1 6186296 51898858#0 51898858#1 51898854#1 56700148#0 56700148#1 56700147#0 56700147#1 201331144 157274919#0 21624791#0 21624791#1 21624791#2 111465042 301084468 321188527 81852046 301084576 338209142 301084567 219188462 132525352 132525347 132406529 338407178 70913328 -226991212 -131382643 -338407179 176886890 188639781 352041950 42551572#0 42551572#1 33434245 33431432 33432714 33432713#1 140559827 85417941#0 85417941#1 160207521 135342517#0 69091662 85417940#1 254138019 "/>
</vehicle>
<vehicle arrivalLane="current" depart="30" departLane="random" departPos="random" id="veh_2_30.0" type="type1">
<route edges="208883386#0 208883386#1 338854138 -338854138 -225926829 157104082 157434654#0 157434654#1 157434654#2 150109682 157434654#4 157435215 157104087 4229599#0 203159184 157429592#0 5229976 157393120#1 157393120#2 157393120#3 47313732#0 47313732#1 47313732#2 47313732#3 47313732#4 32021843#1 160312590 322456246 25606745 322456245 322456250 47426158 150031245 47426157 135593540#1 115106779 -28523795 -32064261 -32064260#1 -32064260#0 219098057 206080341 -37347656 4390494 27404213 118041104#0 118041104#1 115106778#1 115106778#2 26784170#0 26784170#1 26784170#2 154502587 154507084#1 132405343#0 132405343#1 132405373 132405369 132405372 329035704 132408448 329035703 329035705 96096418 318531317 317362560 158695458 132540383 132540321 132539912 283076461 187067365 133860033 283076458 132614489 132614482 258491539 258491536 132624375 258491542 258503935 258503936 132624422 208913380 258503938 208913384 132624449 208913385 208913381 301094091 132624473 "/>
</vehicle>
<vehicle arrivalLane="current" depart="30" departLane="random" departPos="random" id="veh_1_30.0" type="type1">
<route edges="37372948 253093567 328984619 302370855 155444200 49210512 302370858 219698231 5367061 4097371 219698230#1 4008379 5367057 4008378 219698232 10695212 159182247 302370856 325863620 278327345 286321028 328980686 253093566 25698361 328980684 278328108 11624006 80266375 5077407 5552874 4218820 62081149#0 260192889 41676631 245123471 5069544 245123473 5069540#0 5069540#1 226991211 24024442 86144284 155563747 208424304#1 295644509 76128217 295644508 295516788 203091859 157140427 65417594 9614234 22909113 111465042 301084468 321188527 81852046 301084576 338209142 301084567 219188462 226991213 166914724 338209141 20895437 338209140 301084497 301084487 132545199 301084454 208913387 208913388 219188458 315649555 132624438 208913385 132624485 "/>
</vehicle>
<vehicle arrivalLane="current" depart="30" departLane="random" departPos="random" id="veh_0_30.0" type="type1">
<route edges="5367035 328980688 328980687 25698361 328980684 278328108 11624006 80266375 5077407 5552874 30746500 30833219 220567386 11624079#0 11624079#1 226991211 24024442 86144284 155563747 208424304#1 295644509 76128217 295644508 295516788 203091859 157140427 65417594 9614234 22909113 111465042 301084468 321188527 81852046 301084576 338209142 301084567 219188462 226991213 166914724 338209141 20895437 338209140 301084497 301084487 132545199 301084454 208913387 208913390 "/>
</vehicle>
<vehicle arrivalLane="current" depart="30" departLane="random" departPos="random" id="veh_3_30.0" type="type1">
<route edges="5367050 328980682 328980685 253093567 328984619 302370855 302370860 10695210 31661491 219698234 23450701 24560035 23455340 23450700 133419477 23450712 133419469 23450702#1 219698233 31415356 302370859 302370857 278327345 286321028 328980686 253093566 25698361 328980684 278328108 11624006 80266375 5077407 5552874 30746500 4218823#0 4218823#1 4218823#2 166046314 62078861#1 198188181 -205996114 -23543117#0 23714486#0 23714486#1 89528650 204001544 147860624#0 147860624#1 151054054#1 147726287#1 147726287#2 147726287#3 100132777 326979311 22887858 100138692 6187383 141241843 201168470 144886433 186459295#0 186459295#1 144886432#1 186461131#0 186461131#1 6186296 51898858#0 51898858#1 51898854#1 56700148#0 56700148#1 56700147#0 56700147#1 201331144 157274919#0 21624791#0 21624791#1 21624791#2 111465042 301084468 321188527 81852046 301084576 338209142 301084567 219188462 132525352 132525347 132406529 338407178 70913328 -226991212 -131382643 -338407179 176886890 188639781 352041950 42551572#0 42551572#1 33434245 33431432 33432714 33432713#1 140559827 85417941#0 85417941#1 160207521 135342517#0 69091662 85417940#1 254138019 "/>
</vehicle>
<vehicle arrivalLane="current" depart="36" departLane="random" departPos="random" id="veh_2_36.0" type="type1">
<route edges="208883386#0 208883386#1 338854138 -338854138 -225926829 157104082 157434654#0 157434654#1 157434654#2 150109682 157434654#4 157435215 157104087 4229599#0 203159184 157429592#0 5229976 157393120#1 157393120#2 157393120#3 47313732#0 47313732#1 47313732#2 47313732#3 47313732#4 32021843#1 160312590 322456246 25606745 322456245 322456250 47426158 150031245 47426157 135593540#1 115106779 -28523795 -32064261 -32064260#1 -32064260#0 219098057 206080341 -37347656 4390494 27404213 118041104#0 118041104#1 115106778#1 115106778#2 26784170#0 26784170#1 26784170#2 154502587 154507084#1 132405343#0 132405343#1 132405373 132405369 132405372 329035704 132408448 329035703 329035705 96096418 318531317 317362560 158695458 132540383 132540321 132539912 283076461 187067365 133860033 283076458 132614489 132614482 258491539 258491536 132624375 258491542 258503935 258503936 132624422 208913380 258503938 208913384 132624449 208913385 208913381 301094091 132624473 "/>
</vehicle>
<vehicle arrivalLane="current" depart="36" departLane="random" departPos="random" id="veh_1_36.0" type="type1">
<route edges="37372948 253093567 328984619 302370855 155444200 49210512 302370858 219698231 5367061 4097371 219698230#1 4008379 5367057 4008378 219698232 10695212 159182247 302370856 325863620 278327345 286321028 328980686 253093566 25698361 328980684 278328108 11624006 80266375 5077407 5552874 4218820 62081149#0 260192889 41676631 245123471 5069544 245123473 5069540#0 5069540#1 226991211 24024442 86144284 155563747 208424304#1 295644509 76128217 295644508 295516788 203091859 157140427 65417594 9614234 22909113 111465042 301084468 321188527 81852046 301084576 338209142 301084567 219188462 226991213 166914724 338209141 20895437 338209140 301084497 301084487 132545199 301084454 208913387 208913388 219188458 315649555 132624438 208913385 132624485 "/>
</vehicle>
<vehicle arrivalLane="current" depart="36" departLane="random" departPos="random" id="veh_0_36.0" type="type1">
<route edges="5367035 328980688 328980687 25698361 328980684 278328108 11624006 80266375 5077407 5552874 30746500 30833219 220567386 11624079#0 11624079#1 226991211 24024442 86144284 155563747 208424304#1 295644509 76128217 295644508 295516788 203091859 157140427 65417594 9614234 22909113 111465042 301084468 321188527 81852046 301084576 338209142 301084567 219188462 226991213 166914724 338209141 20895437 338209140 301084497 301084487 132545199 301084454 208913387 208913390 "/>
</vehicle>
<vehicle arrivalLane="current" depart="36" departLane="random" departPos="random" id="veh_3_36.0" type="type1">
<route edges="5367050 328980682 328980685 253093567 328984619 302370855 302370860 10695210 31661491 219698234 23450701 24560035 23455340 23450700 133419477 23450712 133419469 23450702#1 219698233 31415356 302370859 302370857 278327345 286321028 328980686 253093566 25698361 328980684 278328108 11624006 80266375 5077407 5552874 30746500 4218823#0 4218823#1 4218823#2 166046314 62078861#1 198188181 -205996114 -23543117#0 23714486#0 23714486#1 89528650 204001544 147860624#0 147860624#1 151054054#1 147726287#1 147726287#2 147726287#3 100132777 326979311 22887858 100138692 6187383 141241843 201168470 144886433 186459295#0 186459295#1 144886432#1 186461131#0 186461131#1 6186296 51898858#0 51898858#1 51898854#1 56700148#0 56700148#1 56700147#0 56700147#1 201331144 157274919#0 21624791#0 21624791#1 21624791#2 111465042 301084468 321188527 81852046 301084576 338209142 301084567 219188462 132525352 132525347 132406529 338407178 70913328 -226991212 -131382643 -338407179 176886890 188639781 352041950 42551572#0 42551572#1 33434245 33431432 33432714 33432713#1 140559827 85417941#0 85417941#1 160207521 135342517#0 69091662 85417940#1 254138019 "/>
</vehicle>
<vehicle arrivalLane="current" depart="42" departLane="random" departPos="random" id="veh_0_42.0" type="type1">
<route edges="5367035 328980688 328980687 25698361 328980684 278328108 11624006 80266375 5077407 5552874 30746500 30833219 220567386 11624079#0 11624079#1 226991211 24024442 86144284 155563747 208424304#1 295644509 76128217 295644508 295516788 203091859 157140427 65417594 9614234 22909113 111465042 301084468 321188527 81852046 301084576 338209142 301084567 219188462 226991213 166914724 338209141 20895437 338209140 301084497 301084487 132545199 301084454 208913387 208913390 "/>
</vehicle>
<vehicle arrivalLane="current" depart="42" departLane="random" departPos="random" id="veh_2_42.0" type="type1">
<route edges="208883386#0 208883386#1 338854138 -338854138 -225926829 157104082 157434654#0 157434654#1 157434654#2 150109682 157434654#4 157435215 157104087 4229599#0 203159184 157429592#0 5229976 157393120#1 157393120#2 157393120#3 47313732#0 47313732#1 47313732#2 47313732#3 47313732#4 32021843#1 160312590 322456246 25606745 322456245 322456250 47426158 150031245 47426157 135593540#1 115106779 -28523795 -32064261 -32064260#1 -32064260#0 219098057 206080341 -37347656 4390494 27404213 118041104#0 118041104#1 115106778#1 115106778#2 26784170#0 26784170#1 26784170#2 154502587 154507084#1 132405343#0 132405343#1 132405373 132405369 132405372 329035704 132408448 329035703 329035705 96096418 318531317 317362560 158695458 132540383 132540321 132539912 283076461 187067365 133860033 283076458 132614489 132614482 258491539 258491536 132624375 258491542 258503935 258503936 132624422 208913380 258503938 208913384 132624449 208913385 208913381 301094091 132624473 "/>
</vehicle>
<vehicle arrivalLane="current" depart="42" departLane="random" departPos="random" id="veh_1_42.0" type="type1">
<route edges="37372948 253093567 328984619 302370855 155444200 49210512 302370858 219698231 5367061 4097371 219698230#1 4008379 5367057 4008378 219698232 10695212 159182247 302370856 325863620 278327345 286321028 328980686 253093566 25698361 328980684 278328108 11624006 80266375 5077407 5552874 4218820 62081149#0 260192889 41676631 245123471 5069544 245123473 5069540#0 5069540#1 226991211 24024442 86144284 155563747 208424304#1 295644509 76128217 295644508 295516788 203091859 157140427 65417594 9614234 22909113 111465042 301084468 321188527 81852046 301084576 338209142 301084567 219188462 226991213 166914724 338209141 20895437 338209140 301084497 301084487 132545199 301084454 208913387 208913388 219188458 315649555 132624438 208913385 132624485 "/>
</vehicle>
<vehicle arrivalLane="current" depart="42" departLane="random" departPos="random" id="veh_3_42.0" type="type1">