<?xml version="1.0" encoding="UTF-8" standalone="no"?>
<routes xmlns:xsi="http://www.w3.org/2001/XMLSchema-instance" xsi:noNamespaceSchemaLocation="http://sumo.dlr.de/xsd/routes_file.xsd">
<vType id="type1" length="1.0">
<carFollowing-Krauss tau="2.5"/>
</vType>
<vehicle arrivalLane="current" depart="0" departLane="random" departPos="random" id="veh_0_0.0" type="type1">
<route edges="15770698 134996389 75402235#0 75402235#1 75402235#2 134991380#1 176204416 75351782 234877581 115843655#1 75351832 75525464#0 75525464#1 176204415 44839296 75525375#0 75525375#1 44839245#1 44818682#0 44818682#1 75525379 75092700 174555660 174555658 75092722 44839211#1 173767782#0 173767782#1 74665939 74665940 174552508 49331781#0 49331781#1 33299226 49331426 33299288#1 49331891#5 49331891#6 116796554 253945387 116796563 244916056 "/>
</vehicle>
<vehicle arrivalLane="current" depart="0" departLane="random" departPos="random" id="veh_1_0.0" type="type1">
<route edges="175540475 134996396 134996389 75402235#0 95840940#0 95840940#1 95840977#1 95840977#2 95840962 75241834#1 234873073#0 234873073#1 234873073#2 166702718#1 265150829#0 265150829#1 74896359 74896348 15092487 14061945 176296636#0 176296636#1 37523734#1 37523725#1 37523725#2 304816551 174552484#0 174552484#1 37553776 37553778#1 37635200#1 174552481 167813074#0 167813074#1 200159296 23194137#1 45248305#1 15775020#1 41664158 "/>
</vehicle>
<vehicle arrivalLane="current" depart="0" departLane="random" departPos="random" id="veh_2_0.0" type="type1">
<route edges="201940948#0 121102375 121102361#3 53819087#1 141463869 158922859 257203528#1 257203528#2 257203528#3 257203528#4 257203528#5 201940821 156568648#0 156568648#1 156568648#2 210545572#1 288864126 83505397#1 201940848#0 201940848#1 210545574#1 43981383#0 43981383#1 211283927#0 211283927#1 211283927#2 211283927#3 201592969#1 201592969#2 201592969#3 211283934 158912501 319888254#1 319887266#0 319887266#1 151193538 141463842 319967468#1 319967468#2 319967468#3 319983798 32877157#1 32877157#2 211283951#1 211283951#2 211283980#0 211283980#1 319999114 266258711#0 266258711#1 266258711#2 319999903 32877236 123267250 123267253 123267232#3 123267232#4 15004371#0 15004371#1 123267196 175845924 175845926 175845927 44776086#1 44776086#2 44638511#1 44638511#2 226204633 226204636 265150726 44638535#1 74592215 75334685 75044382 75277108 75411586 173913055 173913046 75414323 173913043 174552479 75044392 75007288 75007289 75007297 75007298#0 75007298#1 15774741 44628879 44628876 75392722 23135315 "/>
</vehicle>
<vehicle arrivalLane="current" depart="6" departLane="random" departPos="random" id="veh_0_6.0" type="type1">
<route edges="15770698 134996389 75402235#0 75402235#1 75402235#2 134991380#1 176204416 75351782 234877581 115843655#1 75351832 75525464#0 75525464#1 176204415 44839296 75525375#0 75525375#1 44839245#1 44818682#0 44818682#1 75525379 75092700 174555660 174555658 75092722 44839211#1 173767782#0 173767782#1 74665939 74665940 174552508 49331781#0 49331781#1 33299226 49331426 33299288#1 49331891#5 49331891#6 116796554 253945387 116796563 244916056 "/>
</vehicle>
<vehicle arrivalLane="current" depart="6" departLane="random" departPos="random" id="veh_1_6.0" type="type1">
<route edges="175540475 134996396 134996389 75402235#0 95840940#0 95840940#1 95840977#1 95840977#2 95840962 75241834#1 234873073#0 234873073#1 234873073#2 166702718#1 265150829#0 265150829#1 74896359 74896348 15092487 14061945 176296636#0 176296636#1 37523734#1 37523725#1 37523725#2 304816551 174552484#0 174552484#1 37553776 37553778#1 37635200#1 174552481 167813074#0 167813074#1 200159296 23194137#1 45248305#1 15775020#1 41664158 "/>
</vehicle>
<vehicle arrivalLane="current" depart="6" departLane="random" departPos="random" id="veh_2_6.0" type="type1">
<route edges="201940948#0 121102375 121102361#3 53819087#1 141463869 158922859 257203528#1 257203528#2 257203528#3 257203528#4 257203528#5 201940821 156568648#0 156568648#1 156568648#2 210545572#1 288864126 83505397#1 201940848#0 201940848#1 210545574#1 43981383#0 43981383#1 211283927#0 211283927#1 211283927#2 211283927#3 201592969#1 201592969#2 201592969#3 211283934 158912501 319888254#1 319887266#0 319887266#1 151193538 141463842 319967468#1 319967468#2 319967468#3 319983798 32877157#1 32877157#2 211283951#1 211283951#2 211283980#0 211283980#1 319999114 266258711#0 266258711#1 266258711#2 319999903 32877236 123267250 123267253 123267232#3 123267232#4 15004371#0 15004371#1 123267196 175845924 175845926 175845927 44776086#1 44776086#2 44638511#1 44638511#2 226204633 226204636 265150726 44638535#1 74592215 75334685 75044382 75277108 75411586 173913055 173913046 75414323 173913043 174552479 75044392 75007288 75007289 75007297 75007298#0 75007298#1 15774741 44628879 44628876 75392722 23135315 "/>
</vehicle>
<vehicle arrivalLane="current" depart="12" departLane="random" departPos="random" id="veh_1_12.0" type="type1">
<route edges="175540475 134996396 134996389 75402235#0 95840940#0 95840940#1 95840977#1 95840977#2 95840962 75241834#1 234873073#0 234873073#1 234873073#2 166702718#1 265150829#0 265150829#1 74896359 74896348 15092487 14061945 176296636#0 176296636#1 37523734#1 37523725#1 37523725#2 304816551 174552484#0 174552484#1 37553776 37553778#1 37635200#1 174552481 167813074#0 167813074#1 200159296 23194137#1 45248305#1 15775020#1 41664158 "/>
</vehicle>
<vehicle arrivalLane="current" depart="12" departLane="random" departPos="random" id="veh_2_12.0" type="type1">
<route edges="201940948#0 121102375 121102361#3 53819087#1 141463869 158922859 257203528#1 257203528#2 257203528#3 257203528#4 257203528#5 201940821 156568648#0 156568648#1 156568648#2 210545572#1 288864126 83505397#1 201940848#0 201940848#1 210545574#1 43981383#0 43981383#1 211283927#0 211283927#1 211283927#2 211283927#3 201592969#1 201592969#2 201592969#3 211283934 158912501 319888254#1 319887266#0 319887266#1 151193538 141463842 319967468#1 319967468#2 319967468#3 319983798 32877157#1 32877157#2 211283951#1 211283951#2 211283980#0 211283980#1 319999114 266258711#0 266258711#1 266258711#2 319999903 32877236 123267250 123267253 123267232#3 123267232#4 15004371#0 15004371#1 123267196 175845924 175845926 175845927 44776086#1 44776086#2 44638511#1 44638511#2 226204633 226204636 265150726 44638535#1 74592215 75334685 75044382 75277108 75411586 173913055 173913046 75414323 173913043 174552479 75044392 75007288 75007289 75007297 75007298#0 75007298#1 15774741 44628879 44628876 75392722 23135315 "/>
</vehicle>
<vehicle arrivalLane="current" depart="12" departLane="random" departPos="random" id="veh_0_12.0" type="type1">
<route edges="15770698 134996389 75402235#0 75402235#1 75402235#2 134991380#1 176204416 75351782 234877581 115843655#1 75351832 75525464#0 75525464#1 176204415 44839296 75525375#0 75525375#1 44839245#1 44818682#0 44818682#1 75525379 75092700 174555660 174555658 75092722 44839211#1 173767782#0 173767782#1 74665939 74665940 174552508 49331781#0 49331781#1 33299226 49331426 33299288#1 49331891#5 49331891#6 116796554 253945387 116796563 244916056 "/>
</vehicle>
<vehicle arrivalLane="current" depart="18" departLane="random" departPos="random" id="veh_0_18.0" type="type1">
<route edges="15770698 134996389 75402235#0 75402235#1 75402235#2 134991380#1 176204416 75351782 234877581 115843655#1 75351832 75525464#0 75525464#1 176204415 44839296 75525375#0 75525375#1 44839245#1 44818682#0 44818682#1 75525379 75092700 174555660 174555658 75092722 44839211#1 173767782#0 173767782#1 74665939 74665940 174552508 49331781#0 49331781#1 33299226 49331426 33299288#1 49331891#5 49331891#6 116796554 253945387 116796563 244916056 "/>
</vehicle>
<vehicle arrivalLane="current" depart="18" departLane="random" departPos="random" id="veh_1_18.0" type="type1">
<route edges="175540475 134996396 134996389 75402235#0 95840940#0 95840940#1 95840977#1 95840977#2 95840962 75241834#1 234873073#0 234873073#1 234873073#2 166702718#1 265150829#0 265150829#1 74896359 74896348 15092487 14061945 176296636#0 176296636#1 37523734#1 37523725#1 37523725#2 304816551 174552484#0 174552484#1 37553776 37553778#1 37635200#1 174552481 167813074#0 167813074#1 200159296 23194137#1 45248305#1 15775020#1 41664158 "/>
</vehicle>
<vehicle arrivalLane="current" depart="18" departLane="random" departPos="random" id="veh_2_18.0" type="type1">
<route edges="201940948#0 121102375 121102361#3 53819087#1 141463869 158922859 257203528#1 257203528#2 257203528#3 257203528#4 257203528#5 201940821 156568648#0 156568648#1 156568648#2 210545572#1 288864126 83505397#1 201940848#0 201940848#1 210545574#1 43981383#0 43981383#1 211283927#0 211283927#1 211283927#2 211283927#3 201592969#1 201592969#2 201592969#3 211283934 158912501 319888254#1 319887266#0 319887266#1 151193538 141463842 319967468#1 319967468#2 319967468#3 319983798 32877157#1 32877157#2 211283951#1 211283951#2 211283980#0 211283980#1 319999114 266258711#0 266258711#1 266258711#2 319999903 32877236 123267250 123267253 123267232#3 123267232#4 15004371#0 15004371#1 123267196 175845924 175845926 175845927 44776086#1 44776086#2 44638511#1 44638511#2 226204633 226204636 265150726 44638535#1 74592215 75334685 75044382 75277108 75411586 173913055 173913046 75414323 173913043 174552479 75044392 75007288 75007289 75007297 75007298#0 75007298#1 15774741 44628879 44628876 75392722 23135315 "/>
</vehicle>
<vehicle arrivalLane="current" depart="24" departLane="random" departPos="random" id="veh_2_24.0" type="type1">
<route edges="201940948#0 121102375 121102361#3 53819087#1 141463869 158922859 257203528#1 257203528#2 257203528#3 257203528#4 257203528#5 201940821 156568648#0 156568648#1 156568648#2 210545572#1 288864126 83505397#1 201940848#0 201940848#1 210545574#1 43981383#0 43981383#1 211283927#0 211283927#1 211283927#2 211283927#3 201592969#1 201592969#2 201592969#3 211283934 158912501 319888254#1 319887266#0 319887266#1 151193538 141463842 319967468#1 319967468#2 319967468#3 319983798 32877157#1 32877157#2 211283951#1 211283951#2 211283980#0 211283980#1 319999114 266258711#0 266258711#1 266258711#2 319999903 32877236 123267250 123267253 123267232#3 123267232#4 15004371#0 15004371#1 123267196 175845924 175845926 175845927 44776086#1 44776086#2 44638511#1 44638511#2 226204633 226204636 265150726 44638535#1 74592215 75334685 75044382 75277108 75411586 173913055 173913046 75414323 173913043 174552479 75044392 75007288 75007289 75007297 75007298#0 75007298#1 15774741 44628879 44628876 75392722 23135315 "/>
</vehicle>
<vehicle arrivalLane="current" depart="24" departLane="random" departPos="random" id="veh_1_24.0" type="type1">
<route edges="175540475 134996396 134996389 75402235#0 95840940#0 95840940#1 95840977#1 95840977#2 95840962 75241834#1 234873073#0 234873073#1 234873073#2 166702718#1 265150829#0 265150829#1 74896359 74896348 15092487 14061945 176296636#0 176296636#1 37523734#1 37523725#1 37523725#2 304816551 174552484#0 174552484#1 37553776 37553778#1 37635200#1 174552481 167813074#0 167813074#1 200159296 23194137#1 45248305#1 15775020#1 41664158 "/>
</vehicle>
<vehicle arrivalLane="current" depart="24" departLane="random" departPos="random" id="veh_0_24.0" type="type1">
<route edges="15770698 134996389 75402235#0 75402235#1 75402235#2 134991380#1 176204416 75351782 234877581 115843655#1 75351832 75525464#0 75525464#1 176204415 44839296 75525375#0 75525375#1 44839245#1 44818682#0 44818682#1 75525379 75092700 174555660 174555658 75092722 44839211#1 173767782#0 173767782#1 74665939 74665940 174552508 49331781#0 49331781#1 33299226 49331426 33299288#1 49331891#5 49331891#6 116796554 253945387 116796563 244916056 "/>
</vehicle>
<vehicle arrivalLane="current" depart="30" departLane="random" departPos="random" id="veh_2_30.0" type="type1">
<route edges="201940948#0 121102375 121102361#3 53819087#1 141463869 158922859 257203528#1 257203528#2 257203528#3 257203528#4 257203528#5 201940821 156568648#0 156568648#1 156568648#2 210545572#1 288864126 83505397#1 201940848#0 201940848#1 210545574#1 43981383#0 43981383#1 211283927#0 211283927#1 211283927#2 211283927#3 201592969#1 201592969#2 201592969#3 211283934 158912501 319888254#1 319887266#0 319887266#1 151193538 141463842 319967468#1 319967468#2 319967468#3 319983798 32877157#1 32877157#2 211283951#1 211283951#2 211283980#0 211283980#1 319999114 266258711#0 266258711#1 266258711#2 319999903 32877236 123267250 123267253 123267232#3 123267232#4 15004371#0 15004371#1 123267196 175845924 175845926 175845927 44776086#1 44776086#2 44638511#1 44638511#2 226204633 226204636 265150726 44638535#1 74592215 75334685 75044382 75277108 75411586 173913055 173913046 75414323 173913043 174552479 75044392 75007288 75007289 75007297 75007298#0 75007298#1 15774741 44628879 44628876 75392722 23135315 "/>
</vehicle>
<vehicle arrivalLane="current" depart="30" departLane="random" departPos="random" id="veh_1_30.0" type="type1">
<route edges="175540475 134996396 134996389 75402235#0 95840940#0 95840940#1 95840977#1 95840977#2 95840962 75241834#1 234873073#0 234873073#1 234873073#2 166702718#1 265150829#0 265150829#1 74896359 74896348 15092487 14061945 176296636#0 176296636#1 37523734#1 37523725#1 37523725#2 304816551 174552484#0 174552484#1 37553776 37553778#1 37635200#1 174552481 167813074#0 167813074#1 200159296 23194137#1 45248305#1 15775020#1 41664158 "/>
</vehicle>
<vehicle arrivalLane="current" depart="30" departLane="random" departPos="random" id="veh_0_30.0" type="type1">
<route edges="15770698 134996389 75402235#0 75402235#1 75402235#2 134991380#1 176204416 75351782 234877581 115843655#1 75351832 75525464#0 75525464#1 176204415 44839296 75525375#0 75525375#1 44839245#1 44818682#0 44818682#1 75525379 75092700 174555660 174555658 75092722 44839211#1 173767782#0 173767782#1 74665939 74665940 174552508 49331781#0 49331781#1 33299226 49331426 33299288#1 49331891#5 49331891#6 116796554 253945387 116796563 244916056 "/>
</vehicle>
<vehicle arrivalLane="current" depart="36" departLane="random" departPos="random" id="veh_2_36.0" type="type1">
<route edges="201940948#0 121102375 121102361#3 53819087#1 141463869 158922859 257203528#1 257203528#2 257203528#3 257203528#4 257203528#5 201940821 156568648#0 156568648#1 156568648#2 210545572#1 288864126 83505397#1 201940848#0 201940848#1 210545574#1 43981383#0 43981383#1 211283927#0 211283927#1 211283927#2 211283927#3 201592969#1 201592969#2 201592969#3 211283934 158912501 319888254#1 319887266#0 319887266#1 151193538 141463842 319967468#1 319967468#2 319967468#3 319983798 32877157#1 32877157#2 211283951#1 211283951#2 211283980#0 211283980#1 319999114 266258711#0 266258711#1 266258711#2 319999903 32877236 123267250 123267253 123267232#3 123267232#4 15004371#0 15004371#1 123267196 175845924 175845926 175845927 44776086#1 44776086#2 44638511#1 44638511#2 226204633 226204636 265150726 44638535#1 74592215 75334685 75044382 75277108 75411586 173913055 173913046 75414323 173913043 174552479 75044392 75007288 75007289 75007297 75007298#0 75007298#1 15774741 44628879 44628876 75392722 23135315 "/>
</vehicle>
<vehicle arrivalLane="current" depart="36" departLane="random" departPos="random" id="veh_1_36.0" type="type1">
<route edges="175540475 134996396 134996389 75402235#0 95840940#0 95840940#1 95840977#1 95840977#2 95840962 75241834#1 234873073#0 234873073#1 234873073#2 166702718#1 265150829#0 265150829#1 74896359 74896348 15092487 14061945 176296636#0 176296636#1 37523734#1 37523725#1 37523725#2 304816551 174552484#0 174552484#1 37553776 37553778#1 37635200#1 174552481 167813074#0 167813074#1 200159296 23194137#1 45248305#1 15775020#1 41664158 "/>
</vehicle>
<vehicle arrivalLane="current" depart="36" departLane="random" departPos="random" id="veh_0_36.0" type="type1">
<route edges="15770698 134996389 75402235#0 75402235#1 75402235#2 134991380#1 176204416 75351782 234877581 115843655#1 75351832 75525464#0 75525464#1 176204415 44839296 75525375#0 75525375#1 44839245#1 44818682#0 44818682#1 75525379 75092700 174555660 174555658 75092722 44839211#1 173767782#0 173767782#1 74665939 74665940 174552508 49331781#0 49331781#1 33299226 49331426 33299288#1 49331891#5 49331891#6 116796554 253945387 116796563 244916056 "/>
</vehicle>
<vehicle arrivalLane="current" depart="42" departLane="random" departPos="random" id="veh_0_42.0" type="type1">
<route edges="15770698 134996389 75402235#0 75402235#1 75402235#2 134991380#1 176204416 75351782 234877581 115843655#1 75351832 75525464#0 75525464#1 176204415 44839296 75525375#0 75525375#1 44839245#1 44818682#0 44818682#1 75525379 75092700 174555660 174555658 75092722 44839211#1 173767782#0 173767782#1 74665939 74665940 174552508 49331781#0 49331781#1 33299226 49331426 33299288#1 49331891#5 49331891#6 116796554 253945387 116796563 244916056 "/>
</vehicle>
<vehicle arrivalLane="current" depart="42" departLane="random" departPos="random" id="veh_2_42.0" type="type1">
<route edges="201940948#0 121102375 121102361#3 53819087#1 141463869 158922859 257203528#1 257203528#2 257203528#3 257203528#4 257203528#5 201940821 156568648#0 156568648#1 156568648#2 210545572#1 288864126 83505397#1 201940848#0 201940848#1 210545574#1 43981383#0 43981383#1 211283927#0 211283927#1 211283927#2 211283927#3 201592969#1 201592969#2 201592969#3 211283934 158912501 319888254#1 319887266#0 319887266#1 151193538 141463842 319967468#1 319967468#2 319967468#3 319983798 32877157#1 32877157#2 211283951#1 211283951#2 211283980#0 211283980#1 319999114 266258711#0 266258711#1 266258711#2 319999903 32877236 123267250 123267253 123267232#3 123267232#4 15004371#0 15004371#1 123267196 175845924 175845926 175845927 44776086#1 44776086#2 44638511#1 44638511#2 226204633 226204636 265150726 44638535#1 74592215 75334685 75044382 75277108 75411586 173913055 173913046 75414323 173913043 174552479 75044392 75007288 75007289 75007297 75007298#0 75007298#1 15774741 44628879 44628876 75392722 23135315 "/>
</vehicle>
<vehicle arrivalLane="current" depart="42" departLane="random" departPos="random" id="veh_1_42.0" type="type1">
<route edges="175540475 134996396 134996389 75402235#0 95840940#0 95840940#1 95840977#1 95840977#2 95840962 75241834#1 234873073#0 234873073#1 234873073#2 166702718#1 265150829#0 265150829#1 74896359 74896348 15092487 14061945 176296636#0 176296636#1 37523734#1 37523725#1 37523725#2 304816551 174552484#0 174552484#1 37553776 37553778#1 37635200#1 174552481 167813074#0 167813074#1 200159296 23194137#1 45248305#1 15775020#1 41664158 "/>
</vehicle>
<vehicle arrivalLane="current" depart="48" departLane="random" departPos="random" id="veh_0_48.0" type="type1">
<route edges="15770698 134996389 75402235#0 75402235#1 75402235#2 134991380#1 176204416 75351782 234877581 115843655#1 75351832 75525464#0 75525464#1 176204415 44839296 75525375#0 75525375#1 44839245#1 44818682#0 44818682#1 75525379 75092700 174555660 174555658 75092722 44839211#1 173767782#0 173767782#1 74665939 74665940 174552508 49331781#0 49331781#1 33299226 49331426 33299288#1 49331891#5 49331891#6 116796554 253945387 116796563 244916056 "/>
</vehicle>
<vehicle arrivalLane="current" depart="48" departLane="random" departPos="random" id="veh_2_48.0" type="type1">
<route edges="201940948#0 121102375 121102361#3 53819087#1 141463869 158922859 257203528#1 257203528#2 257203528#3 257203528#4 257203528#5 201940821 156568648#0 156568648#1 156568648#2 210545572#1 288864126 83505397#1 201940848#0 201940848#1 210545574#1 43981383#0 43981383#1 211283927#0 211283927#1 211283927#2 211283927#3 201592969#1 201592969#2 201592969#3 211283934 158912501 319888254#1 319887266#0 319887266#1 151193538 141463842 319967468#1 319967468#2 319967468#3 319983798 32877157#1 32877157#2 211283951#1 211283951#2 211283980#0 211283980#1 319999114 266258711#0 266258711#1 266258711#2 319999903 32877236 123267250 123267253 123267232#3 123267232#4 15004371#0 15004371#1 123267196 175845924 175845926 175845927 44776086#1 44776086#2 44638511#1 44638511#2 226204633 226204636 265150726 44638535#1 74592215 75334685 75044382 75277108 75411586 173913055 173913046 75414323 173913043 174552479 75044392 75007288 75007289 75007297 75007298#0 75007298#1 15774741 44628879 44628876 75392722 23135315 "/>
</vehicle>
<vehicle arrivalLane="current" depart="48" departLane="random" departPos="random" id="veh_1_48.0" type="type1">
<route edges="175540475 134996396 134996389 75402235#0 95840940#0 95840940#1 95840977#1 95840977#2 95840962 75241834#1 234873073#0 234873073#1 234873073#2 166702718#1 265150829#0 265150829#1 74896359 74896348 15092487 14061945 176296636#0 176296636#1 37523734#1 37523725#1 37523725#2 304816551 174552484#0 174552484#1 37553776 37553778#1 37635200#1 174552481 167813074#0 167813074#1 200159296 23194137#1 45248305#1 15775020#1 41664158 "/>
</vehicle>
<vehicle arrivalLane="current" depart="54" departLane="random" departPos="random" id="veh_2_54.0" type="type1">
<route edges="201940948#0 121102375 121102361#3 53819087#1 141463869 158922859 257203528#1 257203528#2 257203528#3 257203528#4 257203528#5 201940821 156568648#0 156568648#1 156568648#2 210545572#1 288864126 83505397#1 201940848#0 201940848#1 210545574#1 43981383#0 43981383#1 211283927#0 211283927#1 211283927#2 211283927#3 201592969#1 201592969#2 201592969#3 211283934 158912501 319888254#1 319887266#0 319887266#1 151193538 141463842 319967468#1 319967468#2 319967468#3 319983798 32877157#1 32877157#2 211283951#1 211283951#2 211283980#0 211283980#1 319999114 266258711#0 266258711#1 266258711#2 319999903 32877236 123267250 123267253 123267232#3 123267232#4 15004371#0 15004371#1 123267196 175845924 175845926 175845927 44776086#1 44776086#2 44638511#1 44638511#2 226204633 226204636 265150726 44638535#1 74592215 75334685 75044382 75277108 75411586 173913055 173913046 75414323 173913043 174552479 75044392 75007288 75007289 75007297 75007298#0 75007298#1 15774741 44628879 44628876 75392722 23135315 "/>
</vehicle>
<vehicle arrivalLane="current" depart="54" departLane="random" departPos="random" id="veh_1_54.0" type="type1">
<route edges="175540475 134996396 134996389 75402235#0 95840940#0 95840940#1 95840977#1 95840977#2 95840962 75241834#1 234873073#0 234873073#1 234873073#2 166702718#1 265150829#0 265150829#1 74896359 74896348 15092487 14061945 176296636#0 176296636#1 37523734#1 37523725#1 37523725#2 304816551 174552484#0 174552484#1 37553776 37553778#1 37635200#1 174552481 167813074#0 167813074#1 200159296 23194137#1 45248305#1 15775020#1 41664158 "/>
</vehicle>
<vehicle arrivalLane="current" depart="54" departLane="random" departPos="random" id="veh_0_54.0" type="type1">
<route edges="15770698 134996389 75402235#0 75402235#1 75402235#2 134991380#1 176204416 75351782 234877581 115843655#1 75351832 75525464#0 75525464#1 176204415 44839296 75525375#0 75525375#1 44839245#1 44818682#0 44818682#1 75525379 75092700 174555660 174555658 75092722 44839211#1 173767782#0 173767782#1 74665939 74665940 174552508 49331781#0 49331781#1 33299226 49331426 33299288#1 49331891#5 49331891#6 116796554 253945387 116796563 244916056 "/>
</vehicle>
<vehicle arrivalLane="current" depart="60" departLane="random" departPos="random" id="veh_2_60.0" type="type1">
<route edges="201940948#0 121102375 121102361#3 53819087#1 141463869 158922859 257203528#1 257203528#2 257203528#3 257203528#4 257203528#5 201940821 156568648#0 156568648#1 156568648#2 210545572#1 288864126 83505397#1 201940848#0 201940848#1 210545574#1 43981383#0 43981383#1 211283927#0 211283927#1 211283927#2 211283927#3 201592969#1 201592969#2 201592969#3 211283934 158912501 319888254#1 319887266#0 319887266#1 151193538 141463842 319967468#1 319967468#2 319967468#3 319983798 32877157#1 32877157#2 211283951#1 211283951#2 211283980#0 211283980#1 319999114 266258711#0 266258711#1 266258711#2 319999903 32877236 123267250 123267253 123267232#3 123267232#4 15004371#0 15004371#1 123267196 175845924 175845926 175845927 44776086#1 44776086#2 44638511#1 44638511#2 226204633 226204636 265150726 44638535#1 74592215 75334685 75044382 75277108 75411586 173913055 173913046 75414323 173913043 174552479 75044392 75007288 75007289 75007297 75007298#0 75007298#1 15774741 44628879 44628876 75392722 23135315 "/>
</vehicle>
<vehicle arrivalLane="current" depart="60" departLane="random" departPos="random" id="veh_1_60.0" type="type1">
<route edges="175540475 134996396 134996389 75402235#0 95840940#0 95840940#1 95840977#1 95840977#2 95840962 75241834#1 234873073#0 234873073#1 234873073#2 166702718#1 265150829#0 265150829#1 74896359 74896348 15092487 14061945 176296636#0 176296636#1 37523734#1 37523725#1 37523725#2 304816551 174552484#0 174552484#1 37553776 37553778#1 37635200#1 174552481 167813074#0 167813074#1 200159296 23194137#1 45248305#1 15775020#1 41664158 "/>
</vehicle>
<vehicle arrivalLane="current" depart="60" departLane="random" departPos="random" id="veh_0_60.0" type="type1">
<route edges="15770698 134996389 75402235#0 75402235#1 75402235#2 134991380#1 176204416 75351782 234877581 115843655#1 75351832 75525464#0 75525464#1 176204415 44839296 75525375#0 75525375#1 44839245#1 44818682#0 44818682#1 75525379 75092700 174555660 174555658 75092722 44839211#1 173767782#0 173767782#1 74665939 74665940 174552508 49331781#0 49331781#1 33299226 49331426 33299288#1 49331891#5 49331891#6 116796554 253945387 116796563 244916056 "/>
</vehicle>
<vehicle arrivalLane="current" depart="66" departLane="random" departPos="random" id="veh_2_66.0" type="type1">
<route edges="201940948#0 121102375 121102361#3 53819087#1 141463869 158922859 257203528#1 257203528#2 257203528#3 257203528#4 257203528#5 201940821 156568648#0 156568648#1 156568648#2 210545572#1 288864126 83505397#1 201940848#0 201940848#1 210545574#1 43981383#0 43981383#1 211283927#0 211283927#1 211283927#2 211283927#3 201592969#1 201592969#2 201592969#3 211283934 158912501 319888254#1 319887266#0 319887266#1 151193538 141463842 319967468#1 319967468#2 319967468#3 319983798 32877157#1 32877157#2 211283951#1 211283951#2 211283980#0 211283980#1 319999114 266258711#0 266258711#1 266258711#2 319999903 32877236 123267250 123267253 123267232#3 123267232#4 15004371#0 15004371#1 123267196 175845924 175845926 175845927 44776086#1 44776086#2 44638511#1 44638511#2 226204633 226204636 265150726 44638535#1 74592215 75334685 75044382 75277108 75411586 173913055 173913046 75414323 173913043 174552479 75044392 75007288 75007289 75007297 75007298#0 75007298#1 15774741 44628879 44628876 75392722 23135315 "/>
</vehicle>
<vehicle arrivalLane="current" depart="66" departLane="random" departPos="random" id="veh_1_66.0" type="type1">
<route edges="175540475 134996396 134996389 75402235#0 95840940#0 95840940#1 95840977#1 95840977#2 95840962 75241834#1 234873073#0 234873073#1 234873073#2 166702718#1 265150829#0 265150829#1 74896359 74896348 15092487 14061945 176296636#0 176296636#1 37523734#1 37523725#1 37523725#2 304816551 174552484#0 174552484#1 37553776 37553778#1 37635200#1 174552481 167813074#0 167813074#1 200159296 23194137#1 45248305#1 15775020#1 41664158 "/>
</vehicle>
<vehicle arrivalLane="current" depart="66" departLane="random" departPos="random" id="veh_0_66.0" type="type1">
<route edges="15770698 134996389 75402235#0 75402235#1 75402235#2 134991380#1 176204416 75351782 234877581 115843655#1 75351832 75525464#0 75525464#1 176204415 44839296 75525375#0 75525375#1 44839245#1 44818682#0 44818682#1 75525379 75092700 174555660 174555658 75092722 44839211#1 173767782#0 173767782#1 74665939 74665940 174552508 49331781#0 49331781#1 33299226 49331426 33299288#1 49331891#5 49331891#6 116796554 253945387 116796563 244916056 "/>
</vehicle>
<vehicle arrivalLane="current" depart="72" departLane="random" departPos="random" id="veh_2_72.0" type="type1">
<route edges="201940948#0 121102375 121102361#3 53819087#1 141463869 158922859 257203528#1 257203528#2 257203528#3 257203528#4 257203528#5 201940821 156568648#0 156568648#1 156568648#2 210545572#1 288864126 83505397#1 201940848#0 201940848#1 210545574#1 43981383#0 43981383#1 211283927#0 211283927#1 211283927#2 211283927#3 201592969#1 201592969#2 201592969#3 211283934 158912501 319888254#1 319887266#0 319887266#1 151193538 141463842 319967468#1 319967468#2 319967468#3 319983798 32877157#1 32877157#2 211283951#1 211283951#2 211283980#0 211283980#1 319999114 266258711#0 266258711#1 266258711#2 319999903 32877236 123267250 123267253 123267232#3 123267232#4 15004371#0 15004371#1 123267196 175845924 175845926 175845927 44776086#1 44776086#2 44638511#1 44638511#2 226204633 226204636 265150726 44638535#1 74592215 75334685 75044382 75277108 75411586 173913055 173913046 75414323 173913043 174552479 75044392 75007288 75007289 75007297 75007298#0 75007298#1 15774741 44628879 44628876 75392722 23135315 "/>
</vehicle>
<vehicle arrivalLane="current" depart="72" departLane="random" departPos="random" id="veh_1_72.0" type="type1">
<route edges="175540475 134996396 134996389 75402235#0 95840940#0 95840940#1 95840977#1 95840977#2 95840962 75241834#1 234873073#0 234873073#1 234873073#2 166702718#1 265150829#0 265150829#1 74896359 74896348 15092487 14061945 176296636#0 176296636#1 37523734#1 37523725#1 37523725#2 304816551 174552484#0 174552484#1 37553776 37553778#1 37635200#1 174552481 167813074#0 167813074#1 200159296 23194137#1 45248305#1 15775020#1 41664158 "/>
</vehicle>
<vehicle arrivalLane="current" depart="72" departLane="random" departPos="random" id="veh_0_72.0" type="type1">
<route edges="15770698 134996389 75402235#0 75402235#1 75402235#2 134991380#1 176204416 75351782 234877581 115843655#1 75351832 75525464#0 75525464#1 176204415 44839296 75525375#0 75525375#1 44839245#1 44818682#0 44818682#1 75525379 75092700 174555660 174555658 75092722 44839211#1 173767782#0 173767782#1 74665939 74665940 174552508 49331781#0 49331781#1 33299226 49331426 33299288#1 49331891#5 49331891#6 116796554 253945387 116796563 244916056 "/>
</vehicle>
<vehicle arrivalLane="current" depart="78" departLane="random" departPos="random" id="veh_2_78.0" type="type1">